/*--------------------------------*- C++ -*----------------------------------*\
  =========                 |
  \\      /  F ield         | OpenFOAM: The Open Source CFD Toolbox
   \\    /   O peration     | Website:  https://openfoam.org
    \\  /    A nd           | Version:  8
     \\/     M anipulation  |
\*---------------------------------------------------------------------------*/
FoamFile
{
	version 2.0;
	format binary;
	class volScalarField;
	location "";
	object alphat;
}
/*---------------------------------------------------------------------------*/


dimensions [1 -1 -1 0 0 0 0];

internalField   uniform 0;

boundaryField
{
    inlet
    {
        type            calculated;
        value           $internalField;
    }
    outlet
    {
        type            calculated;
        value           $internalField;
    }
    rocket
    {
        // Boundary condition for turbulent thermal diffusivity when using wall functions.
        type            compressible::alphatWallFunction;
        Prt             0.85; // Turbulent Prandtl number.
        value           $internalField;
    }
    
    walls
    {
        type            zeroGradient;
    }
    
    #includeEtc "caseDicts/setConstraintTypes"
}
