/*--------------------------------*- C++ -*----------------------------------*\
  =========                 |
  \\      /  F ield         | OpenFOAM: The Open Source CFD Toolbox
   \\    /   O peration     | Website:  https://openfoam.org
    \\  /    A nd           | Version:  8
     \\/     M anipulation  |
\*---------------------------------------------------------------------------*/
FoamFile
{
	version 2.0;
	format binary;
	class volScalarField;
	location "";
	object k;
}
/*---------------------------------------------------------------------------*/
/*---------------------------------------------------------------------------*/

#include        "initialConditions"

dimensions [0 2 -2 0 0 0 0];

internalField uniform $k;

boundaryField
{
    inlet
    {
        type            inletOutlet;
        inletValue      uniform $k;
        value           uniform $k;
    }
    outlet
    {
        type            inletOutlet;
        inletValue      uniform $k;
        value           uniform $k;
    }
    rocket
    {
        type            kqRWallFunction;
        value           uniform $k;
    }

    walls
    {
        type            zeroGradient;
    }
}
// ************************************************************************* //
