/*--------------------------------*- C++ -*----------------------------------*\
  =========                 |
  \\      /  F ield         | OpenFOAM: The Open Source CFD Toolbox
   \\    /   O peration     | Website:  https://openfoam.org
    \\  /    A nd           | Version:  8
     \\/     M anipulation  |
\*---------------------------------------------------------------------------*/
FoamFile
{
	version 2.0;
	format binary;
	class volVectorField;
	object U;
}
/*---------------------------------------------------------------------------*/
/*---------------------------------------------------------------------------*/

#include        "initialConditions"

dimensions [0 1 -1 0 0 0 0];

internalField uniform $flowVelocity;


boundaryField
{
    inlet
    {
        type            inletOutlet;
        inletValue      uniform $flowVelocity;
        value           uniform $flowVelocity;
    }
    outlet
    {
        type            inletOutlet;
        inletValue      uniform $flowVelocity;
        value           uniform $flowVelocity;
    }
    rocket
    {
        type            noSlip;
    }
    walls
    {
        type            zeroGradient;
    }

    #includeEtc "caseDicts/setConstraintTypes"
}
