/*--------------------------------*- C++ -*----------------------------------*\
  =========                 |
  \\      /  F ield         | OpenFOAM: The Open Source CFD Toolbox
   \\    /   O peration     | Website:  https://openfoam.org
    \\  /    A nd           | Version:  7
     \\/     M anipulation  |
\*---------------------------------------------------------------------------*/
FoamFile
{
    version     2.0;
    format      ascii;
    class       dictionary;
    object      controlDict;
}
// * * * * * * * * * * * * * * * * * * * * * * * * * * * * * * * * * * * * * //

application     rhoSimpleFoam;

startFrom       latestTime;

startTime       0;

stopAt          endTime;

endTime         2000;

deltaT          1;

// writeControl    runTime;
writeControl	timeStep;

// writeInterval   1e-04;
writeInterval	50;

purgeWrite      0;

writeFormat     binary;

writePrecision  6;

writeCompression off;

timeFormat      general;

timePrecision   6;

runTimeModifiable true;

functions
{
    #includeFunc MachNo
    #includeFunc residuals
    #includeFunc computeForces
}

// ************************************************************************* //
