/*--------------------------------*- C++ -*----------------------------------*\
  =========                 |
  \\      /  F ield         | OpenFOAM: The Open Source CFD Toolbox
   \\    /   O peration     | Website:  https://openfoam.org
    \\  /    A nd           | Version:  7
     \\/     M anipulation  |
\*---------------------------------------------------------------------------*/
FoamFile
{
    version     2.0;
    format      ascii;
    class       dictionary;
    location    "system";
    object      fvSolution;
}
// * * * * * * * * * * * * * * * * * * * * * * * * * * * * * * * * * * * * * //

solvers
{
    "rho.*"
    {
        solver          diagonal;
    }
    "p.*"
    {
        solver          PBiCG;
        preconditioner  DILU;
        tolerance       1e-8;
    }
    "(U|e).*"
    {
        $p;
        tolerance       1e-8;
    }
    "(k|epsilon|omega).*"
    {
        $p;
        tolerance       1e-8;
    }
}

PIMPLE
{
    nOuterCorrectors 1;
    nCorrectors      1;
    nNonOrthogonalCorrectors 1;

    transonic            yes;
}


