/*--------------------------------*- C++ -*----------------------------------*\
  =========                 |
  \\      /  F ield         | OpenFOAM: The Open Source CFD Toolbox
   \\    /   O peration     | Website:  https://openfoam.org
    \\  /    A nd           | Version:  7
     \\/     M anipulation  |
\*---------------------------------------------------------------------------*/
FoamFile
{
    version     2.0;
    format      ascii;
    class       dictionary;
    location    "system";
    object      fvSolution;
}
// * * * * * * * * * * * * * * * * * * * * * * * * * * * * * * * * * * * * * //

solvers
{
    "rho.*"
    {
        solver          diagonal;
    }
    "p.*"
    {
        solver          PBiCG;
        preconditioner  DILU;
        tolerance       1e-8;
    }
    "(U|e).*"
    {
        $p;
        tolerance       1e-8;
    }
    "(k|epsilon|omega).*"
    {
        $p;
        tolerance       1e-8;
    }
}

PIMPLE
{
   nNonOrthogonalCorrectors 1;
   pMinFactor      0.1;
   pMaxFactor      2;
   transonic       yes;
   consistent      yes;
   residualControl
   {
       p               1e-5;
       U               1e-6;
       e               1e-5;
       "(k|epsilon|nuTilda|omega)" 1e-5;
   }
}


