/*--------------------------------*- C++ -*----------------------------------*\
  =========                 |
  \\      /  F ield         | OpenFOAM: The Open Source CFD Toolbox
   \\    /   O peration     | Website:  https://openfoam.org
    \\  /    A nd           | Version:  7
     \\/     M anipulation  |
\*---------------------------------------------------------------------------*/
FoamFile
{
    version     2.0;
    format      ascii;
    class       featureEdgeMesh;
    location    "constant/triSurface";
    object      body.eMesh;
}
// * * * * * * * * * * * * * * * * * * * * * * * * * * * * * * * * * * * * * //


// points:

66
(
(0.883466 -0.0025 -0.0449305)
(1.0175 -0.0025 -0.0449305)
(1.02 1.27022e-19 -0.045)
(0.88 0 -0.045)
(0.883466 0.0449305 0.0025)
(1.0175 0.0449305 0.0025)
(1.02 0.045 -3.80948e-16)
(0.883466 0.0449305 -0.0025)
(1.0175 0.0449305 -0.0025)
(0.88 0.045 -3.65839e-16)
(0.883466 0.0025 -0.0449305)
(1.0175 0.0025 -0.0449305)
(1.02 -0.0100134 -0.0438718)
(1.02 -0.0195248 -0.0405436)
(-0.7 -0.0100134 -0.0438718)
(-0.7 5.51091e-18 -0.045)
(1.02 -0.028057 -0.0351824)
(-0.7 -0.0195248 -0.0405436)
(-0.7 -0.028057 -0.0351824)
(1.02 -0.0351824 -0.028057)
(-0.7 -0.0351824 -0.028057)
(1.02 -0.0438718 -0.0100134)
(1.02 -0.045 -6.71484e-17)
(1.02 -0.0405436 -0.0195248)
(-0.7 -0.0405436 -0.0195248)
(1.02 -0.0438718 0.0100134)
(-0.7 -0.0438718 -0.0100134)
(-0.7 -0.045 -3.88176e-17)
(-0.7 -0.0438718 0.0100134)
(1.02 -0.0405436 0.0195248)
(-0.7 -0.0405436 0.0195248)
(-0.7 -0.0351824 0.028057)
(1.02 -0.0351824 0.028057)
(-0.7 -0.028057 0.0351824)
(1.02 -0.028057 0.0351824)
(1.02 -0.0100134 0.0438718)
(1.02 8.28304e-30 0.045)
(1.02 -0.0195248 0.0405436)
(-0.7 -0.0195248 0.0405436)
(-0.7 -0.0100134 0.0438718)
(-0.7 0 0.045)
(1.02 0.0100134 0.0438718)
(-0.7 0.0100134 0.0438718)
(1.02 0.0195248 0.0405436)
(-0.7 0.0195248 0.0405436)
(1.02 0.028057 0.0351824)
(-0.7 0.028057 0.0351824)
(1.02 0.0351824 0.028057)
(-0.7 0.0351824 0.028057)
(1.02 0.0438718 0.0100134)
(1.02 0.0405436 0.0195248)
(-0.7 0.0405436 0.0195248)
(1.02 0.0438718 -0.0100134)
(-0.7 0.0438718 0.0100134)
(-0.7 0.045 -3.33067e-17)
(-0.7 0.0438718 -0.0100134)
(1.02 0.0405436 -0.0195248)
(-0.7 0.0405436 -0.0195248)
(-0.7 0.0351824 -0.028057)
(1.02 0.0351824 -0.028057)
(-0.7 0.028057 -0.0351824)
(1.02 0.028057 -0.0351824)
(1.02 0.0100134 -0.0438718)
(1.02 0.0195248 -0.0405436)
(-0.7 0.0195248 -0.0405436)
(-0.7 0.0100134 -0.0438718)
)


// edges:

68
(
(0 1)
(2 12)
(1 2)
(3 0)
(12 13)
(14 15)
(13 16)
(17 14)
(18 17)
(16 19)
(20 18)
(21 22)
(19 23)
(24 20)
(22 25)
(23 21)
(26 24)
(27 26)
(28 27)
(25 29)
(30 28)
(31 30)
(29 32)
(33 31)
(32 34)
(35 36)
(34 37)
(38 33)
(37 35)
(39 38)
(40 39)
(36 41)
(42 40)
(41 43)
(44 42)
(43 45)
(46 44)
(45 47)
(48 46)
(5 4)
(49 6)
(6 5)
(47 50)
(51 48)
(7 8)
(6 52)
(8 6)
(50 49)
(53 51)
(4 9)
(9 7)
(54 53)
(55 54)
(52 56)
(57 55)
(58 57)
(56 59)
(60 58)
(59 61)
(11 10)
(62 2)
(2 11)
(61 63)
(64 60)
(63 62)
(65 64)
(10 3)
(15 65)
)

// * * * * * * * * * * * * * * * * * * * * * * * * * * * * * * * * * * * * * //


// ************************************************************************* //
