/*--------------------------------*- C++ -*----------------------------------*\
  =========                 |
  \\      /  F ield         | OpenFOAM: The Open Source CFD Toolbox
   \\    /   O peration     | Website:  https://openfoam.org
    \\  /    A nd           | Version:  7
     \\/     M anipulation  |
\*---------------------------------------------------------------------------*/
FoamFile
{
    version     2.0;
    format      ascii;
    class       featureEdgeMesh;
    location    "constant/triSurface";
    object      ogive.eMesh;
}
// * * * * * * * * * * * * * * * * * * * * * * * * * * * * * * * * * * * * * //


// points:

185
(
(-0.999583 -0.00042187 -9.79422e-20)
(-0.998767 -0.000344497 0.000886362)
(-0.998767 -0.000118407 0.000943554)
(-0.999215 5.64267e-05 0.000675945)
(-0.999583 0.00042187 -4.6278e-20)
(-0.998767 0.000344497 -0.000886362)
(-0.998767 0.000118407 -0.000943554)
(-0.999215 -5.64267e-05 -0.000675945)
(-0.997461 -0.000591865 0.00152282)
(-0.997461 0.00020343 0.00162108)
(-0.997316 -0.00166701 0.00034863)
(-0.999432 0.000440889 0.000297843)
(-1 0 0)
(-0.99874 -0.000962017 9.4854e-05)
(-0.99997 -5.88843e-05 -1.05609e-20)
(-0.999744 -0.000279602 8.77011e-05)
(-0.998767 -0.000698406 0.000645402)
(-0.999432 3.32217e-05 0.000531028)
(-0.999744 0.000145414 0.000254408)
(-0.999887 -0.000102691 0.000120981)
(-0.999591 -8.36803e-05 0.000407715)
(-0.997396 0.000761965 0.00148082)
(-0.998932 0.000852177 5.97947e-05)
(-0.99896 0.000835076 5.85948e-05)
(-0.99997 5.88843e-05 -3.34966e-21)
(-0.998635 0.00102602 3.53436e-05)
(-0.997461 0.000591865 -0.00152282)
(-0.997461 -0.00020343 -0.00162108)
(-0.997316 0.00166701 -0.00034863)
(-0.999432 -0.000440889 -0.000297843)
(-0.99874 0.000962017 -9.4854e-05)
(-0.999744 0.000279602 -8.77011e-05)
(-0.998767 0.000698406 -0.000645402)
(-0.999432 -3.32217e-05 -0.000531028)
(-0.999744 -0.000145414 -0.000254408)
(-0.999887 0.000102691 -0.000120981)
(-0.999591 8.36803e-05 -0.000407715)
(-0.997396 -0.000761965 -0.00148082)
(-0.998932 -0.000852177 -5.97947e-05)
(-0.99896 -0.000835076 -5.85948e-05)
(-0.998635 -0.00102602 -3.53436e-05)
(-0.997461 -0.000930274 0.00134308)
(-0.995624 -0.00139818 0.00201862)
(-0.998767 0.000118407 0.000943554)
(-0.7 -0.045 -3.88176e-17)
(-0.7 -0.044808 0.00415208)
(-0.7 -0.0442338 0.00826873)
(-0.7 -0.0402824 0.0200582)
(-0.7 -0.0382598 0.0236895)
(-0.7 -0.0359108 0.0271186)
(-0.7 -0.0332554 0.0303163)
(-0.7 -0.0303163 0.0332554)
(-0.7 -0.0271186 0.0359108)
(-0.7 -0.0236895 0.0382598)
(-0.7 -0.0200582 0.0402824)
(-0.7 -0.0162559 0.0419612)
(-0.7 -0.0123148 0.0432822)
(-0.7 -0.00826873 0.0442338)
(-0.7 -0.00415208 0.044808)
(-0.7 0 0.045)
(-0.7 0.00415208 0.044808)
(-0.7 0.00826873 0.0442338)
(-0.7 0.0123148 0.0432822)
(-0.7 0.0162559 0.0419612)
(-0.7 0.0200582 0.0402824)
(-0.7 0.0236895 0.0382598)
(-0.7 0.0271186 0.0359108)
(-0.7 0.0303163 0.0332554)
(-0.7 0.0332554 0.0303163)
(-0.7 0.0432822 0.0123148)
(-0.7 0.0442338 0.00826873)
(-0.7 0.044808 0.00415208)
(-0.7 0.045 -3.33067e-17)
(-0.999432 -0.000504315 0.00016959)
(-0.999425 -0.00050884 0.000171111)
(-0.999183 -0.000662123 0.000222657)
(-0.998021 -0.00128514 0.000432164)
(-0.99935 -0.000558038 0.000187655)
(-0.999405 -0.00052236 0.000175658)
(-0.999418 -0.000513355 0.00017263)
(-0.998272 0.000927908 0.000799618)
(-0.996327 0.0016318 0.00140619)
(-0.996677 0.00175493 0.000956843)
(-0.998021 0.00119042 0.00064905)
(-0.99867 0.000883883 0.00048192)
(-0.999432 0.000467142 0.0002547)
(-0.7 -0.0432822 0.0123148)
(-0.7 -0.0419612 0.0162559)
(-0.7 0.0359108 0.0271186)
(-0.7 0.0382598 0.0236895)
(-0.7 0.0419612 0.0162559)
(-0.7 0.0402824 0.0200582)
(-0.998653 -0.0010112 9.97034e-05)
(-0.999885 -0.000160941 -3.25118e-20)
(-0.999987 -3.06494e-05 -5.14985e-21)
(-0.999995 -1.57294e-05 -2.51674e-21)
(-0.997572 -0.00123968 0.000979433)
(-0.999432 -0.000408954 0.000340369)
(-0.995624 -0.00180342 0.00166655)
(-0.997461 -0.0011999 0.00110884)
(-0.999104 -0.000371499 0.000649952)
(-0.998767 -0.000541469 0.000781746)
(-0.999104 -0.00029208 0.000689303)
(-0.997461 -0.00020343 0.00162108)
(-0.998767 0.000344497 0.000886362)
(-0.999104 0.000408497 0.000627359)
(-0.99602 -0.00226145 0.000344035)
(-0.999744 -0.000130207 0.000262517)
(-0.998725 -0.000675698 0.00070377)
(-0.997776 0.00146417 0.0002138)
(-0.998946 0.000843637 5.91955e-05)
(-0.998953 0.000839359 5.88953e-05)
(-0.999987 3.06494e-05 -1.39638e-21)
(-0.999995 1.57294e-05 -5.90447e-22)
(-0.997157 0.00177376 0.00012446)
(-0.998577 0.00105853 3.64634e-05)
(-0.999885 0.000160941 -1.28022e-20)
(-0.997461 0.000930274 -0.00134308)
(-0.995624 0.00139818 -0.00201862)
(-0.998767 -0.000118407 -0.000943554)
(-0.7 0.044808 -0.00415208)
(-0.7 0.0442338 -0.00826873)
(-0.7 0.0402824 -0.0200582)
(-0.7 0.0382598 -0.0236895)
(-0.7 0.0359108 -0.0271186)
(-0.7 0.0332554 -0.0303163)
(-0.7 0.0303163 -0.0332554)
(-0.7 0.0271186 -0.0359108)
(-0.7 0.0236895 -0.0382598)
(-0.7 0.0200582 -0.0402824)
(-0.7 0.0162559 -0.0419612)
(-0.7 0.0123148 -0.0432822)
(-0.7 0.00826873 -0.0442338)
(-0.7 0.00415208 -0.044808)
(-0.7 5.51091e-18 -0.045)
(-0.7 -0.00415208 -0.044808)
(-0.7 -0.00826873 -0.0442338)
(-0.7 -0.0123148 -0.0432822)
(-0.7 -0.0162559 -0.0419612)
(-0.7 -0.0200582 -0.0402824)
(-0.7 -0.0236895 -0.0382598)
(-0.7 -0.0271186 -0.0359108)
(-0.7 -0.0303163 -0.0332554)
(-0.7 -0.0332554 -0.0303163)
(-0.7 -0.0432822 -0.0123148)
(-0.7 -0.0442338 -0.00826873)
(-0.7 -0.044808 -0.00415208)
(-0.999432 0.000504315 -0.00016959)
(-0.999425 0.00050884 -0.000171111)
(-0.999183 0.000662123 -0.000222657)
(-0.998021 0.00128514 -0.000432164)
(-0.999418 0.000513355 -0.00017263)
(-0.99935 0.000558038 -0.000187655)
(-0.999405 0.00052236 -0.000175658)
(-0.998272 -0.000927908 -0.000799618)
(-0.996327 -0.0016318 -0.00140619)
(-0.996677 -0.00175493 -0.000956843)
(-0.998021 -0.00119042 -0.00064905)
(-0.99867 -0.000883883 -0.00048192)
(-0.999432 -0.000467142 -0.0002547)
(-0.7 0.0432822 -0.0123148)
(-0.7 0.0419612 -0.0162559)
(-0.7 -0.0359108 -0.0271186)
(-0.7 -0.0382598 -0.0236895)
(-0.7 -0.0419612 -0.0162559)
(-0.7 -0.0402824 -0.0200582)
(-0.998653 0.0010112 -9.97034e-05)
(-0.995624 0.00180342 -0.00166655)
(-0.997461 0.0011999 -0.00110884)
(-0.997572 0.00123968 -0.000979433)
(-0.999432 0.000408954 -0.000340369)
(-0.999104 0.000371499 -0.000649952)
(-0.998767 0.000541469 -0.000781746)
(-0.999104 0.00029208 -0.000689303)
(-0.997461 0.00020343 -0.00162108)
(-0.998767 -0.000344497 -0.000886362)
(-0.999104 -0.000408497 -0.000627359)
(-0.99602 0.00226145 -0.000344035)
(-0.999744 0.000130207 -0.000262517)
(-0.998725 0.000675698 -0.00070377)
(-0.997776 -0.00146417 -0.0002138)
(-0.998946 -0.000843637 -5.91955e-05)
(-0.998953 -0.000839359 -5.88953e-05)
(-0.998577 -0.00105853 -3.64634e-05)
(-0.997157 -0.00177376 -0.00012446)
)


// edges:

213
(
(41 42)
(43 9)
(44 45)
(45 46)
(47 48)
(49 50)
(48 49)
(50 51)
(51 52)
(53 54)
(54 55)
(55 56)
(57 58)
(56 57)
(59 60)
(58 59)
(61 62)
(60 61)
(62 63)
(63 64)
(64 65)
(65 66)
(66 67)
(67 68)
(69 70)
(70 71)
(71 72)
(73 74)
(75 76)
(77 75)
(78 77)
(79 78)
(74 79)
(11 80)
(80 81)
(82 83)
(84 11)
(83 84)
(12 85)
(86 87)
(46 86)
(87 47)
(52 53)
(68 88)
(88 89)
(90 69)
(91 90)
(92 10)
(13 0)
(93 0)
(14 93)
(94 14)
(95 94)
(12 95)
(73 15)
(15 13)
(15 12)
(96 16)
(16 97)
(98 99)
(100 101)
(1 102)
(8 1)
(17 2)
(2 103)
(17 3)
(43 3)
(3 9)
(12 18)
(104 18)
(18 105)
(89 91)
(10 106)
(97 19)
(107 19)
(100 107)
(1 20)
(20 2)
(21 105)
(104 21)
(99 108)
(22 109)
(22 110)
(110 111)
(111 23)
(23 24)
(24 112)
(112 113)
(113 12)
(114 115)
(25 23)
(4 25)
(4 116)
(116 24)
(117 118)
(119 27)
(72 120)
(120 121)
(122 123)
(124 125)
(123 124)
(125 126)
(126 127)
(128 129)
(129 130)
(130 131)
(132 133)
(131 132)
(133 134)
(134 135)
(136 137)
(135 136)
(137 138)
(138 139)
(139 140)
(140 141)
(141 142)
(142 143)
(144 145)
(145 146)
(146 44)
(147 148)
(149 150)
(148 151)
(152 149)
(151 153)
(153 152)
(29 154)
(154 155)
(156 157)
(158 29)
(157 158)
(12 159)
(160 161)
(121 160)
(161 122)
(127 128)
(143 162)
(162 163)
(164 144)
(165 164)
(166 28)
(30 4)
(147 31)
(30 31)
(31 12)
(167 168)
(32 169)
(32 170)
(171 172)
(26 5)
(5 173)
(33 6)
(6 174)
(7 33)
(27 7)
(119 7)
(175 34)
(12 34)
(34 176)
(163 165)
(28 177)
(170 35)
(171 178)
(178 35)
(36 6)
(36 5)
(37 175)
(37 176)
(179 168)
(38 180)
(38 181)
(181 182)
(182 39)
(39 14)
(183 184)
(40 39)
(0 40)
(11 81)
(82 11)
(13 12)
(10 15)
(76 15)
(8 102)
(9 17)
(16 19)
(8 20)
(103 20)
(18 21)
(108 98)
(114 22)
(23 12)
(24 25)
(29 155)
(156 29)
(30 12)
(28 31)
(150 31)
(173 26)
(27 33)
(32 35)
(26 36)
(36 174)
(37 34)
(167 179)
(184 38)
(39 12)
(40 14)
(19 12)
(12 19)
2{12}
(35 12)
(12 35)
)

// * * * * * * * * * * * * * * * * * * * * * * * * * * * * * * * * * * * * * //


// ************************************************************************* //
