/*--------------------------------*- C++ -*----------------------------------*\
  =========                 |
  \\      /  F ield         | OpenFOAM: The Open Source CFD Toolbox
   \\    /   O peration     | Website:  https://openfoam.org
    \\  /    A nd           | Version:  7
     \\/     M anipulation  |
\*---------------------------------------------------------------------------*/
FoamFile
{
    version     2.0;
    format      ascii;
    class       featureEdgeMesh;
    location    "constant/triSurface";
    object      rocket.eMesh;
}
// * * * * * * * * * * * * * * * * * * * * * * * * * * * * * * * * * * * * * //


// points:

225
(
(-0.999726 0.00030754 -3.03596e-20)
(-0.997763 0.000482034 -0.00140593)
(-0.999726 -0.00030754 -6.80224e-20)
(-0.997763 -0.000482034 0.00140593)
(0.95 -0.115 9.36269e-16)
(0.951035 -0.1125 -0.0025)
(0.951035 -0.1125 0.0025)
(0.951035 -0.0025 -0.1125)
(0.95 5.31259e-17 -0.115)
(0.95 -5.31259e-17 0.115)
(0.951035 -0.0025 0.1125)
(0.951035 0.0025 -0.1125)
(0.951035 0.0025 0.1125)
(0.951035 0.1125 -0.0025)
(0.95 0.115 -5.69147e-16)
(0.951035 0.1125 0.0025)
(1.0175 -0.1125 -0.0025)
(1.0175 -0.1125 0.0025)
(1.0175 -0.0025 -0.1125)
(1.0175 -0.0025 0.1125)
(1.0175 0.0025 -0.1125)
(1.0175 0.0025 0.1125)
(1.0175 0.1125 -0.0025)
(1.0175 0.1125 0.0025)
(1.02 -0.115 9.54512e-16)
(1.02 2.66714e-17 -0.115)
(1.02 -2.66714e-17 0.115)
(1.02 0.115 -6.01689e-16)
(-0.999987 2.83631e-22 -3.18292e-05)
(-1 0 0)
(-0.998568 0.00103138 -0.000261937)
(-0.999335 0.000568364 -0.00018824)
(-0.999321 0.00025767 -0.000551128)
(-0.997405 0.000538656 -0.00157108)
(-0.998709 -0.000982639 -5.61967e-05)
(-0.998725 -0.000974058 -5.57059e-05)
(-0.999987 -5.48869e-21 3.18292e-05)
(-0.998568 -0.00103138 0.000261937)
(-0.999335 -0.000568364 0.00018824)
(-0.999321 -0.00025767 0.000551128)
(-0.997405 -0.000538656 0.00157108)
(-0.998709 0.000982639 5.61967e-05)
(-0.998725 0.000974058 5.57059e-05)
(1.0175 -0.0025 -0.0449305)
(0.883466 -0.0025 -0.0449305)
(1.02 1.27022e-19 -0.045)
(0.88 0 -0.045)
(0.883466 -0.0449305 -0.0025)
(1.0175 -0.0449305 -0.0025)
(1.02 -0.045 -6.71484e-17)
(1.0175 -0.0449305 0.0025)
(0.883466 -0.0449305 0.0025)
(0.88 -0.045 2.62628e-16)
(0.883466 -0.0025 0.0449305)
(1.0175 -0.0025 0.0449305)
(1.02 8.28304e-30 0.045)
(0.88 0 0.045)
(1.0175 0.0025 0.0449305)
(0.883466 0.0025 0.0449305)
(0.883466 0.0449305 0.0025)
(1.0175 0.0449305 0.0025)
(1.02 0.045 -3.80948e-16)
(1.0175 0.0449305 -0.0025)
(0.883466 0.0449305 -0.0025)
(0.88 0.045 -3.65839e-16)
(0.883466 0.0025 -0.0449305)
(1.0175 0.0025 -0.0449305)
(-0.998629 -0.000333935 -0.000973976)
(-0.99709 0.00175391 -0.000445438)
(-0.997217 0.00161535 -0.000673061)
(-0.998939 0.000140666 -0.000838135)
(-0.998563 0.000791943 -0.000714948)
(-0.992845 0.00251745 -0.00249647)
(-0.996719 -0.00196624 -0.000232126)
(-0.998629 0.000333935 0.000973976)
(-0.997217 -0.00161535 0.000673061)
(-0.99709 -0.00175391 0.000445438)
(-0.998939 -0.000140666 0.000838135)
(-0.998563 -0.000791943 0.000714948)
(-0.992845 -0.00251745 0.00249647)
(-0.996719 0.00196624 0.000232126)
(-0.999796 -0.000148097 -0.000197463)
(-0.998543 0.00104495 -0.000265384)
(-0.998558 0.00103681 -0.000263317)
(-0.999047 0.000784104 -1.05794e-19)
(-0.999926 0.000115675 -8.24118e-21)
(-0.999968 6.11042e-05 -3.51937e-21)
(-0.999987 3.18292e-05 -1.46867e-21)
(-0.999994 1.63484e-05 -6.19339e-22)
(-0.99983 1.66694e-20 -0.000215442)
(-0.999926 4.8476e-21 -0.000115675)
(-0.999948 4.14999e-21 -8.89204e-05)
(-0.999726 3.4782e-21 -0.00030754)
(-0.999968 2.49428e-21 -6.11042e-05)
(-0.999978 1.19056e-21 -4.66873e-05)
(-0.999281 -0.000381118 -0.000508157)
(-0.999395 6.69548e-20 -0.000557671)
(-0.996835 4.5676e-19 -0.00192724)
(-0.997958 3.08887e-22 -0.00138812)
(-0.997778 0.00136482 -0.000568677)
(-0.997763 0.00137194 -0.000571643)
(-0.997747 0.00137905 -0.000574605)
(-0.997592 0.00144962 -0.000604009)
(-0.997716 0.00139324 -0.000580518)
(-0.99777 0.00136839 -0.00057016)
(-0.997592 0.000509326 -0.00148553)
(-0.997654 0.000499448 -0.00145672)
(-0.997716 0.000489518 -0.00142776)
(-0.997732 0.000487027 -0.00142049)
(-0.997747 0.000484532 -0.00141322)
(-0.997755 0.000483284 -0.00140958)
(-0.997217 0.000567554 -0.00165537)
(-0.998895 0.000145072 -0.000864389)
(-0.996651 0.000651931 -0.00190147)
(-0.998003 -0.00101331 -0.000914792)
(-0.997096 -0.00179435 -0.000211833)
(-0.997221 -0.00173603 -0.000204949)
(-0.997253 -0.00172137 -0.000203217)
(-0.999223 -0.000662099 -0.000121385)
(-0.997268 -0.00171403 -0.00020235)
(-0.997276 -0.00171035 -0.000201916)
(-0.997284 -0.00170667 -0.000201482)
(-0.999685 0.000218375 -0.000262936)
(-0.998717 -0.000978351 -5.59514e-05)
(-0.999047 -0.000784104 -2.01819e-19)
(-0.999926 -0.000115675 -2.24073e-20)
(-0.999968 -6.11042e-05 -1.10025e-20)
(-0.999987 -3.18292e-05 -5.36662e-21)
(-0.999994 -1.63484e-05 -2.62144e-21)
(-0.997568 0.00098053 -0.00124173)
(-0.999796 0.000148097 0.000197463)
(-0.998543 -0.00104495 0.000265384)
(-0.998558 -0.00103681 0.000263317)
(-0.999281 0.000381118 0.000508157)
(-0.999395 -1.62909e-19 0.000557671)
(-0.999726 -9.32875e-20 0.00030754)
(-0.999926 -2.80408e-20 0.000115675)
(-0.999948 -1.48156e-20 8.89204e-05)
(-0.999968 -9.36094e-21 6.11042e-05)
(-0.999978 -8.02842e-21 4.66873e-05)
(-0.996835 -7.64544e-19 0.00192724)
(-0.997958 -1.30715e-19 0.00138812)
(-0.99983 -9.3046e-20 0.000215442)
(-0.997778 -0.00136482 0.000568677)
(-0.997763 -0.00137194 0.000571643)
(-0.997747 -0.00137905 0.000574605)
(-0.997592 -0.00144962 0.000604009)
(-0.997716 -0.00139324 0.000580518)
(-0.99777 -0.00136839 0.00057016)
(-0.997592 -0.000509326 0.00148553)
(-0.997654 -0.000499448 0.00145672)
(-0.997716 -0.000489518 0.00142776)
(-0.997732 -0.000487027 0.00142049)
(-0.997747 -0.000484532 0.00141322)
(-0.997755 -0.000483284 0.00140958)
(-0.996651 -0.000651931 0.00190147)
(-0.997217 -0.000567554 0.00165537)
(-0.998895 -0.000145072 0.000864389)
(-0.998003 0.00101331 0.000914792)
(-0.997096 0.00179435 0.000211833)
(-0.997221 0.00173603 0.000204949)
(-0.997253 0.00172137 0.000203217)
(-0.999223 0.000662099 0.000121385)
(-0.997268 0.00171403 0.00020235)
(-0.997276 0.00171035 0.000201916)
(-0.997284 0.00170667 0.000201482)
(-0.999685 -0.000218375 0.000262936)
(-0.998717 0.000978351 5.59514e-05)
(-0.997568 -0.00098053 0.00124173)
(1.02 -0.00470378 -0.0447535)
(1.02 -0.00935603 -0.0440166)
(1.02 -0.0139058 -0.0427975)
(1.02 -0.0183032 -0.0411096)
(1.02 -0.0225 -0.0389711)
(1.02 -0.0264503 -0.0364058)
(1.02 -0.0301109 -0.0334415)
(1.02 -0.0334415 -0.0301109)
(1.02 -0.0364058 -0.0264503)
(1.02 -0.0389711 -0.0225)
(1.02 -0.0411096 -0.0183032)
(1.02 -0.0427975 -0.0139058)
(1.02 -0.0440166 -0.00935603)
(1.02 -0.0447535 -0.00470378)
(1.02 -0.0447535 0.00470378)
(1.02 -0.0440166 0.00935603)
(1.02 -0.0427975 0.0139058)
(1.02 -0.0411096 0.0183032)
(1.02 -0.0389711 0.0225)
(1.02 -0.0364058 0.0264503)
(1.02 -0.0334415 0.0301109)
(1.02 -0.0301109 0.0334415)
(1.02 -0.0264503 0.0364058)
(1.02 -0.0225 0.0389711)
(1.02 -0.0183032 0.0411096)
(1.02 -0.0139058 0.0427975)
(1.02 -0.00935603 0.0440166)
(1.02 -0.00470378 0.0447535)
(1.02 0.00470378 0.0447535)
(1.02 0.00935603 0.0440166)
(1.02 0.0139058 0.0427975)
(1.02 0.0183032 0.0411096)
(1.02 0.0225 0.0389711)
(1.02 0.0264503 0.0364058)
(1.02 0.0301109 0.0334415)
(1.02 0.0334415 0.0301109)
(1.02 0.0364058 0.0264503)
(1.02 0.0389711 0.0225)
(1.02 0.0411096 0.0183032)
(1.02 0.0427975 0.0139058)
(1.02 0.0440166 0.00935603)
(1.02 0.0447535 0.00470378)
(1.02 0.0447535 -0.00470378)
(1.02 0.0440166 -0.00935603)
(1.02 0.0427975 -0.0139058)
(1.02 0.0389711 -0.0225)
(1.02 0.0411096 -0.0183032)
(1.02 0.0364058 -0.0264503)
(1.02 0.0334415 -0.0301109)
(1.02 0.0301109 -0.0334415)
(1.02 0.0264503 -0.0364058)
(1.02 0.0225 -0.0389711)
(1.02 0.0183032 -0.0411096)
(1.02 0.0139058 -0.0427975)
(1.02 0.00935603 -0.0440166)
(1.02 0.00470378 -0.0447535)
)


// edges:

273
(
(29 30)
(28 67)
(31 68)
(31 69)
(33 32)
(70 28)
(71 72)
(34 73)
(29 35)
(29 37)
(74 36)
(38 75)
(76 38)
(40 39)
(77 36)
(78 79)
(80 41)
(29 42)
(43 44)
(45 43)
(44 46)
(47 48)
(48 49)
(50 51)
(49 50)
(52 47)
(51 52)
(53 54)
(54 55)
(56 53)
(57 58)
(55 57)
(58 56)
(59 60)
(60 61)
(62 63)
(61 62)
(64 59)
(63 64)
(65 66)
(66 45)
(46 65)
(81 28)
(82 68)
(83 82)
(0 30)
(84 0)
(0 85)
(85 86)
(86 87)
(87 88)
(88 29)
(30 83)
(89 90)
(90 91)
(92 89)
(91 93)
(93 94)
(94 28)
(81 95)
(96 92)
(97 98)
(99 31)
(30 31)
(29 31)
(100 101)
(102 69)
(103 102)
(101 103)
(104 100)
(99 104)
(105 33)
(106 105)
(107 106)
(108 107)
(109 108)
(110 109)
(1 110)
(32 1)
(111 33)
(1 112)
(113 111)
(95 114)
(115 73)
(116 115)
(117 116)
(29 118)
(119 117)
(120 119)
(121 120)
(28 122)
(32 122)
(121 34)
(34 123)
(35 123)
(35 118)
(35 2)
(124 35)
(2 124)
(125 2)
(126 125)
(127 126)
(128 127)
(29 128)
(71 129)
(130 36)
(131 76)
(132 131)
(2 37)
(37 132)
(130 133)
(134 135)
(136 137)
(137 138)
(138 139)
(139 36)
(140 141)
(135 142)
(142 136)
(143 38)
(38 37)
(29 38)
(144 145)
(146 75)
(145 147)
(148 144)
(143 148)
(147 146)
(149 40)
(150 149)
(151 150)
(152 151)
(153 152)
(154 153)
(3 154)
(39 3)
(155 156)
(156 40)
(3 157)
(158 133)
(159 80)
(160 159)
(161 160)
(29 162)
(163 161)
(164 163)
(165 164)
(36 166)
(39 166)
(165 41)
(167 41)
(42 162)
(42 0)
(84 42)
(42 167)
(78 168)
(169 45)
(170 169)
(171 170)
(172 171)
(173 172)
(174 173)
(175 174)
(176 175)
(177 176)
(178 177)
(179 178)
(180 179)
(181 180)
(49 182)
(182 181)
(183 49)
(184 183)
(185 184)
(186 185)
(187 186)
(188 187)
(189 188)
(190 189)
(191 190)
(192 191)
(193 192)
(194 193)
(195 194)
(55 196)
(196 195)
(197 55)
(198 197)
(199 198)
(200 199)
(201 200)
(202 201)
(203 202)
(204 203)
(205 204)
(206 205)
(207 206)
(208 207)
(209 208)
(61 210)
(210 209)
(211 61)
(212 211)
(213 212)
(214 215)
(215 213)
(216 214)
(217 216)
(218 217)
(219 218)
(220 219)
(221 220)
(222 221)
(223 222)
(45 224)
(224 223)
(52 4)
(5 47)
(4 5)
(51 6)
(6 4)
(44 7)
(7 8)
(8 46)
(56 9)
(10 53)
(9 10)
(11 65)
(8 11)
(58 12)
(12 9)
(63 13)
(13 14)
(14 64)
(15 59)
(14 15)
(5 16)
(16 48)
(17 6)
(50 17)
(18 7)
(43 18)
(10 19)
(19 54)
(11 20)
(20 66)
(21 12)
(57 21)
(22 13)
(62 22)
(15 23)
(23 60)
(4 24)
(24 16)
(17 24)
(25 8)
(18 25)
(9 26)
(26 19)
(25 20)
(21 26)
(27 14)
(22 27)
(27 23)
(24 49)
(45 25)
(26 55)
(61 27)
(28 29)
(29 28)
2{29}
(36 29)
(29 36)
)

// * * * * * * * * * * * * * * * * * * * * * * * * * * * * * * * * * * * * * //


// ************************************************************************* //
