/*--------------------------------*- C++ -*----------------------------------*\
  =========                 |
  \\      /  F ield         | OpenFOAM: The Open Source CFD Toolbox
   \\    /   O peration     | Website:  https://openfoam.org
    \\  /    A nd           | Version:  7
     \\/     M anipulation  |
\*---------------------------------------------------------------------------*/
FoamFile
{
    version     2.0;
    format      ascii;
    class       featureEdgeMesh;
    location    "constant/triSurface";
    object      winglets.eMesh;
}
// * * * * * * * * * * * * * * * * * * * * * * * * * * * * * * * * * * * * * //


// points:

144
(
(1.0175 -0.1125 0.0025)
(1.02 -0.115 9.54512e-16)
(1.02 -0.045 -6.71484e-17)
(1.0175 -0.0449305 0.0025)
(0.883466 -0.0449305 0.0025)
(0.951035 -0.1125 0.0025)
(1.0175 0.1125 -0.0025)
(1.0175 0.0449305 -0.0025)
(1.02 0.045 -3.80948e-16)
(1.02 0.115 -6.01689e-16)
(1.02 8.28304e-30 0.045)
(1.02 -2.66714e-17 0.115)
(1.0175 -0.0025 0.1125)
(1.0175 -0.0025 0.0449305)
(0.95 5.31259e-17 -0.115)
(0.883466 0.0025 -0.0449305)
(0.88 0 -0.045)
(0.951035 0.0025 -0.1125)
(1.02 2.66714e-17 -0.115)
(1.0175 -0.0025 -0.1125)
(0.951035 -0.0025 -0.1125)
(1.0175 -0.1125 -0.0025)
(0.95 -0.115 9.36269e-16)
(0.951035 -0.1125 -0.0025)
(0.951035 -0.0025 0.1125)
(0.883466 -0.0025 0.0449305)
(0.95 0.115 -5.69147e-16)
(0.951035 0.1125 -0.0025)
(0.95 -5.31259e-17 0.115)
(0.88 0 0.045)
(0.883466 -0.0025 -0.0449305)
(0.951035 0.1125 0.0025)
(0.883466 0.0449305 0.0025)
(1.0175 0.0449305 0.0025)
(1.0175 0.1125 0.0025)
(0.88 0.045 -3.65839e-16)
(1.0175 -0.0449305 -0.0025)
(0.883466 -0.0449305 -0.0025)
(0.88 -0.045 2.62628e-16)
(1.0175 0.0025 0.1125)
(1.0175 0.0025 0.0449305)
(1.0175 0.0025 -0.0449305)
(1.0175 0.0025 -0.1125)
(0.951035 0.0025 0.1125)
(0.883466 0.0025 0.0449305)
(0.883466 0.0449305 -0.0025)
(1.02 1.27022e-19 -0.045)
(1.0175 -0.0025 -0.0449305)
(1.01792 -0.0449521 0.00207642)
(1.01835 -0.0449696 0.00165263)
(1.01877 -0.0449832 0.00122865)
(1.01898 -0.0449885 0.0010166)
(1.01919 -0.0449928 0.000804539)
(1.0196 -0.0449982 0.000402269)
(1.01792 0.0449521 -0.00207642)
(1.01835 0.0449696 -0.00165263)
(1.01877 0.0449832 -0.00122865)
(1.01898 0.0449885 -0.0010166)
(1.01919 0.0449928 -0.000804539)
(1.0196 0.0449982 -0.000402269)
(1.01962 -0.000381853 0.0449984)
(1.01924 -0.00076371 0.0449935)
(1.01885 -0.00114545 0.0449854)
(1.01847 -0.00152709 0.0449741)
(1.01809 -0.00190859 0.0449595)
(1.0178 -0.00220435 0.044946)
(0.882936 0.00211104 -0.0449505)
(0.882402 0.00172189 -0.044967)
(0.881863 0.00133095 -0.0449803)
(0.881318 0.000939062 -0.0449902)
(0.880769 0.000546274 -0.0449967)
(0.880385 0.000273133 -0.0449992)
(0.882936 -0.00211104 0.0449505)
(0.882402 -0.00172189 0.044967)
(0.881863 -0.00133095 0.0449803)
(0.881318 -0.000939062 0.0449902)
(0.880769 -0.000546274 0.0449967)
(0.880385 -0.000273133 0.0449992)
(0.882969 -0.00213522 -0.0449493)
(0.882469 -0.00177026 -0.0449652)
(0.881983 -0.00141784 -0.0449777)
(0.881493 -0.00106465 -0.0449874)
(0.881 -0.000710714 -0.0449944)
(0.880501 -0.000355354 -0.0449986)
(0.882936 0.0449505 0.00211104)
(0.882402 0.044967 0.00172189)
(0.881863 0.0449803 0.00133095)
(0.881318 0.0449902 0.000939062)
(0.880769 0.0449967 0.000546274)
(0.880385 0.0449992 0.000273133)
(1.01962 0.0449984 0.000381853)
(1.01924 0.0449935 0.00076371)
(1.01885 0.0449854 0.00114545)
(1.01847 0.0449741 0.00152709)
(1.01809 0.0449595 0.00190859)
(1.0178 0.044946 0.00220435)
(1.01962 -0.0449984 -0.000381853)
(1.01924 -0.0449935 -0.00076371)
(1.01885 -0.0449854 -0.00114545)
(1.01847 -0.0449741 -0.00152709)
(1.01809 -0.0449595 -0.00190859)
(1.0178 -0.044946 -0.00220435)
(0.882936 -0.0449505 -0.00211104)
(0.882402 -0.044967 -0.00172189)
(0.881863 -0.0449803 -0.00133095)
(0.881318 -0.0449902 -0.000939062)
(0.880769 -0.0449967 -0.000546274)
(0.880385 -0.0449992 -0.000273133)
(1.01792 0.00207642 0.0449521)
(1.01835 0.00165263 0.0449696)
(1.01877 0.00122865 0.0449832)
(1.01898 0.0010166 0.0449885)
(1.01919 0.000804539 0.0449928)
(1.0196 0.000402269 0.0449982)
(1.01962 0.000381853 -0.0449984)
(1.01924 0.00076371 -0.0449935)
(1.01885 0.00114545 -0.0449854)
(1.01847 0.00152709 -0.0449741)
(1.01809 0.00190859 -0.0449595)
(1.0178 0.00220435 -0.044946)
(0.882969 0.0449493 -0.00213522)
(0.882469 0.0449652 -0.00177026)
(0.881983 0.0449777 -0.00141784)
(0.881493 0.0449874 -0.00106465)
(0.881 0.0449944 -0.000710714)
(0.880501 0.0449986 -0.000355354)
(0.882969 0.00213522 0.0449493)
(0.882469 0.00177026 0.0449652)
(0.881983 0.00141784 0.0449777)
(0.881493 0.00106465 0.0449874)
(0.881 0.000710714 0.0449944)
(0.880501 0.000355354 0.0449986)
(1.01792 -0.00207642 -0.0449521)
(1.01835 -0.00165263 -0.0449696)
(1.01877 -0.00122865 -0.0449832)
(1.01898 -0.0010166 -0.0449885)
(1.01919 -0.000804539 -0.0449928)
(1.0196 -0.000402269 -0.0449982)
(0.880501 -0.0449986 0.000355354)
(0.881 -0.0449944 0.000710714)
(0.881493 -0.0449874 0.00106465)
(0.881983 -0.0449777 0.00141784)
(0.882469 -0.0449652 0.00177026)
(0.882969 -0.0449493 0.00213522)
)


// edges:

172
(
(1 2)
(0 1)
(3 0)
(48 3)
(49 48)
(50 49)
(51 50)
(52 51)
(53 52)
(2 53)
(4 5)
(3 4)
(5 0)
(7 6)
(54 7)
(55 54)
(56 55)
(57 56)
(58 57)
(59 58)
(8 59)
(6 9)
(9 8)
(10 11)
(11 12)
(60 10)
(61 60)
(62 61)
(63 62)
(64 63)
(65 64)
(12 13)
(13 65)
(66 15)
(67 66)
(68 67)
(69 68)
(70 69)
(71 70)
(14 16)
(16 71)
(15 17)
(17 14)
(14 18)
(18 19)
(20 14)
(19 20)
(23 21)
(22 23)
(21 1)
(1 22)
(24 25)
(25 13)
(12 24)
(26 9)
(6 27)
(27 26)
(72 25)
(73 72)
(74 73)
(75 74)
(76 75)
(77 76)
(28 29)
(29 77)
(24 28)
(20 30)
(30 78)
(78 79)
(79 80)
(80 81)
(81 82)
(82 83)
(83 16)
(31 32)
(32 33)
(33 34)
(34 31)
(84 32)
(85 84)
(86 85)
(87 86)
(88 87)
(89 88)
(26 35)
(35 89)
(31 26)
(9 34)
(90 8)
(91 90)
(92 91)
(93 92)
(94 93)
(95 94)
(33 95)
(96 2)
(97 96)
(98 97)
(99 98)
(100 99)
(101 100)
(21 36)
(36 101)
(23 37)
(37 36)
(102 37)
(103 102)
(104 103)
(105 104)
(106 105)
(107 106)
(22 38)
(38 107)
(40 39)
(108 40)
(109 108)
(110 109)
(111 110)
(112 111)
(113 112)
(10 113)
(39 11)
(15 41)
(41 42)
(42 17)
(44 43)
(40 44)
(43 39)
(5 22)
(45 27)
(7 45)
(18 42)
(46 18)
(114 46)
(115 114)
(116 115)
(117 116)
(118 117)
(119 118)
(41 119)
(45 120)
(120 121)
(121 122)
(122 123)
(123 124)
(124 125)
(125 35)
(11 28)
(28 43)
(44 126)
(126 127)
(127 128)
(128 129)
(129 130)
(130 131)
(131 29)
(47 19)
(132 47)
(133 132)
(134 133)
(135 134)
(136 135)
(137 136)
(46 137)
(138 38)
(139 138)
(140 139)
(141 140)
(142 141)
(143 142)
(4 143)
(47 30)
)

// * * * * * * * * * * * * * * * * * * * * * * * * * * * * * * * * * * * * * //


// ************************************************************************* //
