/*--------------------------------*- C++ -*----------------------------------*\
  =========                 |
  \\      /  F ield         | OpenFOAM: The Open Source CFD Toolbox
   \\    /   O peration     | Website:  https://openfoam.org
    \\  /    A nd           | Version:  8
     \\/     M anipulation  |
\*---------------------------------------------------------------------------*/
FoamFile
{
	version 2.0;
	format binary;
	class volScalarField;
	location "";
	object omega;
}
/*---------------------------------------------------------------------------*/
/*---------------------------------------------------------------------------*/

#include        "initialConditions"

dimensions [0 0 -1 0 0 0 0];

internalField uniform $w;


boundaryField
{
    inlet
    {
        type            inletOutlet;
        inletValue      uniform $w;
        value           uniform $w;
    }
    outlet
    {
        type            inletOutlet;
        inletValue      uniform $w;
        value           uniform $w;
    }
    
    rocket
    {
        type            omegaWallFunction;
        value           uniform $w;
    }

    walls
    {
        type            zeroGradient;
    }
}

// ************************************************************************* //
