/*--------------------------------*- C++ -*----------------------------------*\
  =========                 |
  \\      /  F ield         | OpenFOAM: The Open Source CFD Toolbox
   \\    /   O peration     | Website:  https://openfoam.org
    \\  /    A nd           | Version:  8
     \\/     M anipulation  |
\*---------------------------------------------------------------------------*/
FoamFile
{
	version 2.0;
	format binary;
	class volScalarField;
	location "";
	object p;
}
/*---------------------------------------------------------------------------*/
/*---------------------------------------------------------------------------*/
#include        "initialConditions"


dimensions [1 -1 -2 0 0 0 0];

internalField uniform $pressure;

boundaryField
{
    inlet
    {
        type            zeroGradient;
    }
    
    outlet
    {
	type            fixedValue;
        value           uniform $pressure;
    }
    rocket
    {
        type            zeroGradient;
    }

    walls
    {
        type            zeroGradient;
    }
}
