/*--------------------------------*- C++ -*----------------------------------*\
  =========                 |
  \\      /  F ield         | OpenFOAM: The Open Source CFD Toolbox
   \\    /   O peration     | Website:  https://openfoam.org
    \\  /    A nd           | Version:  8
     \\/     M anipulation  |
\*---------------------------------------------------------------------------*/
FoamFile
{
	version 2.0;
	format binary;
	class volScalarField;
	object T;
}
/*---------------------------------------------------------------------------*/
/*---------------------------------------------------------------------------*/

#include        "initialConditions"


dimensions [0 0 0 1 0 0 0];

internalField uniform $temperature;



boundaryField
{
    inlet
    {
        type            inletOutlet;
        inletValue      uniform $temperature;
        value           uniform $temperature;
    }
    outlet
    {
        type            inletOutlet;
        inletValue      uniform $temperature;
        value           uniform $temperature;
    }
    rocket
    {
        type            zeroGradient;
    }

    walls
    {
        type            zeroGradient;
    }
    #includeEtc "caseDicts/setConstraintTypes"
}

// ************************************************************************* //
