/*--------------------------------*- C++ -*----------------------------------*\
| =========                 |                                                 |
| \\      /  F ield         | OpenFOAM: The Open Source CFD Toolbox           |
|  \\    /   O peration     | Version:  1.5                                   |
|   \\  /    A nd           | Web:      http://www.OpenFOAM.org               |
|    \\/     M anipulation  |                                                 |
\*---------------------------------------------------------------------------*/
FoamFile
{
    version     2.0;
    format      ascii;
    class       dictionary;
    object      fvSchemes;
}
// * * * * * * * * * * * * * * * * * * * * * * * * * * * * * * * * * * * * * //


ddtSchemes
{
    default             steadyState;
}

gradSchemes
{
    default             Gauss linear;
    grad(U)         	cellLimited Gauss linear 1;
    grad(p)            Gauss linear;
    grad(e) 		cellLimited Gauss linear 1;
}

divSchemes
{
    default none;
    div(phi,k)      bounded Gauss upwind;
    div(phi,omega)  bounded Gauss upwind;
    div(phi,U) Gauss limitedLinear 1;
    div(((rho*nuEff)*dev2(T(grad(U)))))      Gauss linear;
    div(phi,e)          bounded Gauss upwind;
    div(phid,p)         Gauss upwind;
    div(phi,Ekp)        bounded Gauss upwind;
    div((phi|interpolate(rho)),p)  Gauss upwind;
}

laplacianSchemes
{
	default Gauss linear corrected 0.33;
}

interpolationSchemes
{
    default                 linear;
}

snGradSchemes
{
	default         limited corrected 0.33;  
}

wallDist
{
    method meshWave;
}

// ************************************************************************* //
