/*--------------------------------*- C++ -*----------------------------------*\
| =========                 |                                                 |
| \\      /  F ield         | OpenFOAM: The Open Source CFD Toolbox           |
|  \\    /   O peration     | Version:  plus                                  |
|   \\  /    A nd           | Web:      www.OpenFOAM.com                      |
|    \\/     M anipulation  |                                                 |
\*---------------------------------------------------------------------------*/
FoamFile
{
    version     2.0;
    format      ascii;
    class       dictionary;
    location    "system";
    object      fvSolution;
}
// * * * * * * * * * * * * * * * * * * * * * * * * * * * * * * * * * * * * * //

solvers
{

    "(p|e)"
{
	solver GAMG;
	tolerance 1e-8;
	relTol 0.1;
	smoother GaussSeidel;
	nPreSweeps 1;
	nPostSweeps 2;
	cacheAgglomeration on;
	agglomerator faceAreaPair;
	nCellsInCoarsestLevel 200;
	mergeLevels 1;
}

     U
{
        solver          smoothSolver;
        smoother        GaussSeidel;
        nSweeps         1;
        tolerance       1e-08;
        relTol          0.1;
} 
	"rho.*"
{
        solver          diagonal;
        tolerance       1e-05;
        relTol          0;
}
		
	"(k|omega)"
{
        solver          GAMG;
        tolerance       1e-08;
        relTol          0.1;
        smoother        GaussSeidel;
        nCellsInCoarsestLevel 20;
	nPreSweeps 1;
	nPostSweeps 0;
	cacheAgglomeration on;
	agglomerator faceAreaPair;
	mergeLevels 1;
}

}

SIMPLE
{
	nCorrectors 3;
	nNonOrthogonalCorrectors 3;
	pMinFactor      0.1;
    	pMaxFactor      2;
	transonic       true;
        consistent      true;
}

relaxationFactors
{
    fields
    {
        p               0.05;
	rho 		 0.05;
	omega            0.3;
	U                0.3;
	k                0.3;
	e                0.1;
    }
    equations
    {
	p 		0.3;
	U               0.3;
        k               0.3;
	omega           0.2;
	e 		0.2;
	rho             0.2;
    }
}
	
cache
{
	grad(U);
}
